Docs/Casos de Referência/pwfs/2038_2. PD 2035 - MÁXIMA DIURNA ÚMIDO.PWF
(
( Gravacao de .PWF - CART
( Versao do Anarede: 12.03.04
( Data e Hora da Gravacao: 22/04/2026 - 18:51:39                                                           
(
TITU
** CASO PROSPECTIVO ** MAXIMA DIURNA UMIDO ** ANO 2038                          
DAGR
(AG (         D E S C R I C A O        )
  1 Estado                               
(ID O (       Nome de Identificacao      )
  1   Acre                                 
  2   Alagoas                              
  3   Amazonas                             
  4   Amapá                                
  5   Bahia                                
  6   Ceará                                
  7   Distrito Federal                     
  8   Espírito Santo                       
  9   Goiás                                
 10   Maranhão                             
 11   Minas Gerais                         
 12   Mato Grosso do Sul                   
 13   Mato Grosso                          
 14   Pará                                 
 15   Paraíba                              
 16   Pernambuco                           
 17   Piauí                                
 18   Paraná                               
 19   Rio de Janeiro                       
 20   Rio Grande do Norte                  
 21   Rondônia                             
 22   Roraima                              
 23   Rio Grande do Sul                    
 24   Santa Catarina                       
 25   Sergipe                              
 26   São Paulo                            
 27   Tocantins                            
FAGR
(AG (         D E S C R I C A O        )
  2 Estado_Para                          
(ID O (       Nome de Identificacao      )
  1   Acre                                 
  2   Alagoas                              
  3   Amazonas                             
  4   Amapá                                
  5   Bahia                                
  6   Ceará                                
  7   Distrito Federal                     
  8   Espírito Santo                       
  9   Goiás                                
 10   Maranhão                             
 11   Minas Gerais                         
 12   Mato Grosso do Sul                   
 13   Mato Grosso                          
 14   Pará                                 
 15   Paraíba                              
 16   Pernambuco                           
 17   Piauí                                
 18   Paraná                               
 19   Rio de Janeiro                       
 20   Rio Grande do Norte                  
 21   Rondônia                             
 22   Roraima                              
 23   Rio Grande do Sul                    
 24   Santa Catarina                       
 25   Sergipe                              
 26   São Paulo                            
 27   Tocantins                            
FAGR
(AG (         D E S C R I C A O        )
  3 Região                               
(ID O (       Nome de Identificacao      )
  1   Norte                                
  2   Nordeste                             
  3   Centro Oeste                         
  4   Sudeste                              
  5   Sul                                  
FAGR
(AG (         D E S C R I C A O        )
  4 Tipo de Geração                      
(ID O (       Nome de Identificacao      )
  1   Compensador Estático                 
  2   Eólica                               
  3   Pequena Central Hidroelétrica        
  4   Compensador Síncrono                 
  5   Usina Hidroelétrica                  
  6   Usina Nuclear                        
  7   Usina Termelétrica                   
  8   Usina Fotovoltáica                   
FAGR
(AG (         D E S C R I C A O        )
  5 Classificação Instalação             
(ID O (       Nome de Identificacao      )
  1   Rede Básica                          
  2   Rede de Fronteira                    
  3   Rede de Distribuição                 
  4   Rede de Uso Exclusivo                
  5   Demais Instalações de Transmissão    
FAGR
99999
DOPC IMPR
(Op) E (Op) E (Op) E (Op) E (Op) E (Op) E (Op) E (Op) E (Op) E (Op) E
QLIM L VLIM L CREM L CTAP L STEP L NEWT L RCVG L RMON L FILE L CONT L
NOVO L CELO L MFCT L ATCR L PMIN L CPHS L INMN L IANG L UNPG L
99999
DCTE
(Mn) ( Val) (Mn) ( Val) (Mn) ( Val) (Mn) ( Val) (Mn) ( Val) (Mn) ( Val) 
BASE   100. DASE   100. TEPA    .01 EXST    .04 TETP     5. TBPA     5.
TLPP     1. TEPR    .01 QLST    .04 TLPR     .1 TLPQ     2. TSBZ    .01
TSBA     5. ASTP    .05 VSTP     5. TLVC     .5 TLTC    .01 TSFR  .1E-7
ZMAX   500. TLPV     .5 VDVM   200. VDVN    40. TUDC   .001 TADC    .01
PGER    30. TPST    .02 VFLD    70. ZMIN   .001 HIST    470 LFIT     10
ACIT    150 LFCV      1 DCIT     10 VSIT     10 LPIT     50 LFLP     10
PDIT     10 LCRT     24 LPRT     60 CSTP     5. ASDC     1.
ICIT     30 DMAX      5 FDIV     2. ICMN    .05 VART     5. TSTP     32
ICMV     .5 APAS    90. CPAR    70. VAVT     2. VAVF     5. VMVF    15.
VPVT     2. VPVF     5. VPMF    10. VSVF    20. VINF     1. VSUP     1.
TLSI     0. NDIR    20. STTR     5. TRPT   100. STIR     1. BFPO     1.
LFPO     .1 TLMT     .5 TLMF     .5 TLMG     .5 PARS    10.            
99999
DBAR
(Num)OETGb(   nome   )Gl( V)( A)( Pg)( Qg)( Qn)( Qm)(Bc  )( Pl)( Ql)( Sh)Are(Vf)M(1)(2)(3)(4)(5)(6)(7)(8)(9)(10
    1 L1 DPAF1-1UHE013 2101031.5 100..0088 -18.  24.                       51000   5     2  5  4                   
    4 L1 DPAF2A1UHE013 2100934.7  69.-13.8 -39.  23.                       51000   5     2  5  4                   
    5 L1 DPAF2A2UHE013 2100934.6  69.-14.3 -39.  23.                       51000   5     2  5  4                   
    6 L1 DPAF2A3UHE013 2 98335.3  70.3.542 -39.  23.                       51000   5     2  5  4                   
    7 L1 DPAF2B1UHE013 2100631.8  51.-21.5 -67.  54.                       51000   5     2  5  4                   
    8 L1 DPAF2B2UHE013 2 99231.8  51.5.711 -67.  54.                       51000   5     2  5  4                   
    9 L1 DPAF2B3UHE013 2 99231.7  51.5.665 -67.  54.                       51000   5     2  5  4                   
   10 L1 DPAF3-1UHE013 2 997 32. 160.-43.8-144.  97.                       51000   5     2  5  4                   
   11 L1 DPAF3-2UHE013 2 993 31. 160.-30.7-144.  97.                       51000   5     2  5  4                   
   14 L1 DPAF4-1UHE013 2 97429.7 912.-290.-690. 615.                       51000   5     2  5  4                   
   21 L1 DSOBRA1UHE013 2 99834.8420.1-14.1-117. 261.                       61000   5     2  5  4                   
   22 L1 DSOBRM2SIN013   99330.2   0.-19.1-115. 115.                       61000   5     2  4  4                   
   28 L1 DASALE1UHE013 2 99032.8  80.6.945 -43.  48.                       51000   2     2  5  4                   
   29 L1 DASALE2UHE013 2 98731.4  80.11.37 -43.  48.                       51000   2     2  5  4                   
   33 L1 DLGONZ1UHE013 2 99229.2 360.-78.4-240. 250.                       51000  16     2  5  4                   
   34 L1 DLGONZ2UHE013 2 99229.2 360.-78.4-240. 250.                       51000  16     2  5  4                   
   35 L  ZLGONZA-PE000 Z1011 25.                                           510001 16     2     2                   
   44 L1 DBESPE1UHE013 2100015.1 47.1.5012 -26.  26.                       41000  17     2  5  4                   
   46 L1 DBESPE3UHE013 2 99915.8 53.1 .612 -40.  37.                       41000  17     2  5  4                   
   47 L1 DBESPM4SIN013  10029.95   0.-.169 -38.  42.                       41000  17     2  4  4                   
   48 L1 DPCAVA1UHE013 2101112.3131.2  42.-101. 78.4                       11000   5     2  5  4                   
   50 L1 DTUC1-5UHE013 2 98937.91487.-64.2-525. 525.                       7 995  14     1  5  4                   
   52 L1 DTUC1-3UHE013 2 99237.9892.5-15.9-315. 315.                       7 995  14     1  5  4                   
   54 L1 DTUC1-4UHE013 2 99037.91190.-36.4-420. 420.                       7 995  14     1  5  4                   
   63 L1 DFUNIL1UHE013 21002 13. 24.3  -.4 -9.7 12.2                       11000   5     2  5  4                   
   68 D1 DRGONCAUHE013 21030-17.   0.   0.   0.   0.                       41000  17     2  5  4                   
   69 D1 DURUCUIUHE013 21050-1.3   0.   0.   0.   0.                       41000  17     2  5  4                   
   70 L1 DTUC2-4UHE013 2 99539.21326.12.06-468. 520.                       7 995  14     1  5  4                   
   71 L1 DTUC2-7UHE013 2 989 40.2508.-31.3-819. 735.                       7 995  14     1  5  4                   
   72 D1 DTUC1-ASIN013 2 99024.1   0.   0.   0.   0.                       71000  14     1  4  4                   
   73 D1 DTUC1-BSIN013 2 99332.2   0.-20.7-280. 175.                       71000  14     1  4  4                   
   74 D1 DE.PCEMUTE013 2 99615.9   0.   0.   0.   0.                     1021000   6     2  7  4                   
   77 D1 DSQUEBRUHE013 210505.67   0.   0.   0.   0.                       71050  10     2  5  4                   
   80 L1 DESTREIUHE013 2 99730.7924.175.19-473.473.4                       71000  10     2  5  4                   
   86 D1 DCASTELUHE013 21050-8.9   0.   0.   0.   0.                       41000  17     2  5  4                   
   87 D1 DESTRE-UHE013 21050-8.9   0.   0.   0.   0.                       41000  17     2  5  4                   
   88 D1 DCACHEAUHE013 21050-6.3   0.   0.   0.   0.                       41000  17     2  5  4                   
   89 L1 DXINGO1UHE013 2 97927.51200.-211.-660. 519.                       51000  25     2  5  4                   
   95 L1 DITAPE1UHE013 2100214.9364.5 7.94-321. 192.                       11000   5     2  5  4                   
   96 D1 DSUAPE1UTE013 21003 28.   0.   0.   0.   0.                       21000  16     2  7  4                   
   97 D1 DSUAPE2UTE013 21003 28.   0.   0.   0.   0.                       21000  16     2  7  4                   
   98 D1 DSUAPE3UTE013 21003 28.   0.   0.   0.   0.                       21000  16     2  7  4                   
   99 D1 DSUAPE4UTE013 21003 28.   0.   0.   0.   0.                       21000  16     2  7  4                   
  100 D1 DSUAPE5UTE013 21003 28.   0.   0.   0.   0.                       21000  16     2  7  4                   
  101 D1 DSUAPE6UTE013 21003 28.   0.   0.   0.   0.                       21000  16     2  7  4                   
  102 D1 DMARAC1UTE013 2 99815.6   0.   0.   0.   0.                     1021000   6     2  7  4                   
  103 L  MS.BONF-BA138  101528.635.79   0.                188.429.44     1081000   5     2     5                   
  104 L1 DPERNA3UTE013 2100617.4   0.   0.   0.   0.                       21000  16     2  7  4                   
  108 D1 DMURICYUTE013 2101116.1   0.   0.   0.   0.                       11000   5     2  7  4                   
  109 D1 ACAMAPAUTE007 2101116.1   0.   0.   0.   0.                       11000   5     2  7  4                   
  110 L  OPROSPE-BA230  10187.47                                           11000   5     2     1                   
  111 L1 DPRO2E4UTE013  10208.69 9.341.025  -3.   6.                       11000   5     2  7  4                   
  112 D1 DPROSP1UTE013  102014.726.622.588  -8.  18.                       11000   5     2  7  4                   
  115 L  MP.FRAN-MA138  100810.71.557   0.                13.672.776     1091045  10     2     5                   
  120 L  MB.NOME-PE138   99429.719.98   0.                79.75 -1.2     1051000  16     2     5                   
  121 L  DMLG-RE-CE013   99022.9                                         1021000   6     2     2                   
  122 L  MBNOME2-PE138   99629.3 39.4   0.                67.93-1.02     1051000  16     2     2                   
  125 L  DFORTAB-CE013   9992.79                                         1021000   6     2     2                   
  127 L  MPIRIPI-PI138  10096.9611.65   0.                30.43 -2.8     1011000  17     2     5                   
  128 D1 DGLOB1-UTE013 2100215.5   0.   0.   0.   0.                       11000   5     2  7  4                   
  129 D1 DGLOB2-UTE013 2100215.5   0.   0.   0.   0.                       11000   5     2  7  4                   
  130 D1 DTERMPBUTE013 2100775.1   0.   0.   0.   0.                       21000  15     2  7  4                   
  131 L  MMIRAND-MA138 21007-5.117.98   0.                120.224.41     1091045  10     2     5                   
  137 D1 DTERMNEUTE013 2100775.1   0.   0.   0.   0.                       21000  15     2  7  4                   
  138 L  OEPASA--PB230  1005 17.                                           21000  15     2     1                   
  139 D1 DCABO--UTE013 2 99624.5   0.   0.   0.   0.                       11000  16     2  7  4                   
  140 D1 DBAHIA1UTE013  1005 52.   0.   0.   0.   0.        1.2   0.     1081000   5     2  7  4                   
  141 L  OSUAPE--PE230  1005 16.                                           21000  16     2     1                   
  142 L  JMARAC1-CE069   9972.79                                         1021000   6     2     3                   
  145 L  MS.CRUZ-RN138  1002 27.                                         1031000  20     2     3                   
  147 L  ZSUAPE1-PE000 Z1005 16.                                           210001 16     2     2                   
  148 L  ZSUAPE2-PE000 Z1005 16.                                           210001 16     2     2                   
  149 L  ZSUAPE3-PE000 Z1005 16.                                           210001 16     2     2                   
  150 L  JCAMAC1-BA069  10005.48                                         1081000   5     2     3                   
  151 L  MAÇU2---RN138   98126.8                          22.02-5.65     1031000  20     2     5                   
  152 L  MS.MATO-RN138   98026.4                                         1031000  20     2     3                   
  160 D1 DTERPEGUTE013 21007-408 214.18.69-128. 223.                       21020  16     2  7  4                   
  161 D1 DTERPEVUTE013 21005-409134.7 6.58-107.149.9                       21020  16     2  7  4                   
  162 L  MT.FREI-BA138   9881.3840.89   0.                138.870.95     1081000   5     2     5                   
  166 L  SC.M.1-CAP500 41028 19.                                           810622 27     1     1                   
  167 L1 DLAJEADUHE013 2 97328.6 765.-80.7-285. 285.                       81050  27     1  5  4                   
  169 L  MEUNAPO-BA138  10245.4121.41   0.                119.7 28.8     1081000   5     2     5                   
  170 D1 DCFURTAUTE013 2100215.4   0.   0.   0.   0.                       1 960   5     2  7  4                   
  172 L1 DVERACEUTE013 2100211.432.55   0.   0.   0.                       11000   5     2  7  4                   
  174 L  ZCMDCS--BA000 Z10159.53                                           110001  5     2     2                   
  176 L  LFUNIL--BA115  10183.58                                         1081000   5     2     2                   
  180 L1 DB.PULPUTE013  10026.9133.67   0.   0.   0.        20.   0.     1081000   5     2  7  4                   
  181 L  JB.PULP-BA069  10025.82                                         1081000   5     2     3                   
  182 L  JCOPEC--BA069  1000 5.6                                         1081000   5     2     3                   
  183 L  MIRECE--BA138  100426.822.64   0.                 91.8-26.1     1081000   5     2     5                   
  186 L  MBARREI-BA138  102018.4                                         1081000   5     2     5                   
  188 L  MIBICOA-BA138  100411.46.949   0.                62.34-6.14     1081000   5     2     5                   
  190 L  OPIMENT-PA230  100734.2                                           71000  14     1     1                   
  191 L  SCOLITACAP500 4 98824.4                                           710002 14     1     1                   
  192 L  MST.MAR-PA138 210195.81 19.4   0.                80.1318.32     1101000  14     1     5                   
  193 L1 DPIMEN1UHE013 2100439.966.131.068 -13.  24.                       71000  14     1  5  4                   
  194 L1 DPIMEN2UHE013 2100439.966.131.068 -13.  24.                       71000  14     1  5  4                   
  195 L1 DPIMEN3UHE013 2100439.966.131.068 -13.  24.                       71000  14     1  5  4                   
  196 D1 DCGRD--UTE013 2100480.2   0.   0.   0.   0.                       21000  15     2  7  4                   
  197 L  SMARAB3CAP500 4103419.4                                           710852 14     1     1                   
  198 L  ZVCOND2-PA000 Z 9989.53                                           7 9991 14     1     2                   
  199 L1 DMARABASIN013 2100321.7   0.-5.92 -90. 150.                       71050  14     1  4  4                   
  200 L  OPAF3-A-BA230  1025 27.                                           51000   5     2     1                   
  202 L  OJUAZE2-BA230  100930.9                                           61000   5     2     1                   
  203 L  OS.BONF-BA230   99031.2                                           61000   5     2     1                   
  204 L  OSCHIN--MA230  1001-2.5                             2..6574     1171000  10     2     1                   
  205 L  OBROTAS-BA230  102729.7                                           61000   5     2     1                   
  206 L  OSOBRAD-BA230  101031.4                                           61000   5     2     1                   
  207 L  OJAGUAR-BA230   99630.41.813   0.                4.4151.629     1081000   5     2     1                   
  208 L  OZEBUII-AL230  100122.3                                           51000   2     2     1                   
  209 L  OPOCOE2-BA230  10179.06                                         1081000   5     2     1                   
  210 L  ORGONCA-PI230  101222.5                                           41000  17     2     1                   
  211 D  OCASTEL-PI230  1035-7.2                                           41000  17     2     1                   
  212 L  OFLORII-PE230  100322.2                                           51000  16     2     1                   
  213 L  OITAGIB-BA230  10066.13                                           11000   5     2     1                   
  214 L  OEMBASA-BA230   9838.12                           12.9  3.8       11000   5     2     1                   
  215 L  OBALSAS-MA230   99119.7                                           71000  10     2     1                   
  216 L  OTAUA2--CE230   99724.2                                           31000   6     2     1                   
  217 L  OICO----CE230   99822.2                                           31000   6     2     1                   
  218 L  OCAUIPE-CE230   9925.54                                           31000   6     2     1                   
  219 L  OD.GOUV-CE230  10096.46                                           31000   6     2     1                   
  220 L  OBOM-NO-PE230  100428.8                                           31000  16     2     1                   
  221 L  OMILAGR-CE230  100425.9                                           31000   6     2     1                   
  222 L  OBANABU-CE230  100116.7                                           31000   6     2     1                   
  223 L  ORUSSA2-CE230  100120.3                                           31000   6     2     1                   
  224 L  OMOSSR2-RN230   99922.8                                     -20.  31000  20     2     1                   
  225 L  OFORTAL-CE230  10096.81                                           31000   6     2     1                   
  226 L  OSOBRAL-CE230   9916.25                                           31000   6     2     1                   
  227 L  OPIRIPI-PI230  10107.33                                           41000  17     2     1                   
  228 L  OTERES--PI230  10082.43                                           41000  17     2     1                   
  229 L  OB.ESPE-PI230  10039.95                                           41000  17     2     1                   
  230 L  OPERITO-MA230   987-6.9                                           71055  10     2     1                   
  231 L  OMIRAND-MA230  1014 -3.                                           71050  10     2     1                   
  232 L  OSLUIS1-MA230   995-4.8                                           71039  10     2     1                   
  233 L  OCOREMA-PB230  100229.9                                           31000  15     2     1                   
  234 L  OPICI2--CE230   9885.07                                           31000   6     2     1                   
  235 L  OCASTAN-PA230  10019.03                                           71048  14     1     1                   
  236 L  OC.NETO-MA230   985-5.3                                           71049  10     2     1                   
  237 L  OS.J.PI-PI230  100328.8                                           41000  17     2     1                   
  238 L  OP.DUTR-MA230  10231.02                                           71040  10     2     1                   
  239 L  OIMPERA-MA230  1019 15.                                           7 997  10     2     1                   
  240 L  OANGELI-PE230  100720.7                                           21000  16     2     1                   
  241 L  ORECIFE-PE230  100416.4                                           21000  16     2     1                   
  242 L  OR.LAR--AL230  101016.7                                           21000   2     2     1                   
  243 L  OBONGI--PE230  100015.6                                           21000  16     2     1                   
  245 L  OSRITA2-PB230  100416.7                                           21000  15     2     1                   
  246 L  ONATAL2-RN230  100224.3                                           21000  20     2     1                   
  247 L  OGOIANI-PE230  100116.9                                           21000  16     2     1                   
  248 L  OMUSSU2-PB230  1005 17.                                           21000  15     2     1                   
  249 L  OPIRAPA-PE230  100015.6                                           21000  16     2     1                   
  250 L  OMIRUEI-PE230   99815.8                             3. 1.95       21000  16     2     1                   
  251 L  OAÇU2---RN230  100026.3                                           21000  20     2     1                   
  252 L  ORIBEIR-PE230   99116.6                                           21000  16     2     1                   
  253 L  OSUAPE3-PE230  100415.9                                           21000  16     2     1                   
  254 L  OJOAIRA-PE230  100115.9                                           21000  16     2     1                   
  255 L  OTACAIM-PE230   99420.2                                           21000  16     2     1                   
  256 L  OLCARRO-PE230  100018.1                                           21000  16     2     1                   
  257 L  OBNOME2-PE230  100528.5                                           31000  16     2     1                   
  258 L  OPENEDO-AL230  101213.4                                           21000   2     2     1                   
  259 L  OMACEIO-AL230  100616.7                                           21000   2     2     1                   
  260 L  OPAU-FE-PE230  100617.4                                           21000  16     2     1                   
  261 L  OMIRUE2-PE230   998 16.                                           21000  16     2     1                   
  262 L  OT.FREI-BA230  1011  3.                                           11000   5     2     1                   
  263 L  OITAPEB-BA230  10059.29                                           11000   5     2     1                   
  264 L  OS.A.JE-BA230   9998.74                                           11000   5     2     1                   
  265 L  OITBANI-SE230  1004 6.3                                           11000  25     2     1                   
  266 L  OTOMBA--BA230   9555.85                                           11000   5     2     1                   
  267 L  OVERACE-BA230  10039.05                            75.10.69     1171000   5     2     1                   
  268 L  ONARAND-BA230   995 5.9                                           11000   5     2     1                   
  269 L  OEUNAPO-BA230   995 6.8                                           11000   5     2     1                   
  270 L  OC.DANT-BA230   98422.1                                           11000   5     2     1                   
  271 L  OITABAI-SE230   99716.2                                           11000  25     2     1                   
  272 L  OCATU---BA230   9985.93                                           11000   5     2     1                   
  273 L  OJARDIM-SE230  101315.9                                           11000  25     2     1                   
  274 L  OCMACB1-BA230  10159.53                                           11000   5     2     1                   
  275 L  OG.MANG-BA230   9949.03                                           11000   5     2     1                   
  276 L  OFUNIL--BA230  10095.54                                           11000   5     2     1                   
  277 L  OMATATU-BA230   9905.51                                           11000   5     2     1                   
  278 L  OPITUAC-BA230   9966.07                                           11000   5     2     1                   
  279 L  OCOTEGI-BA230   9966.44                                           11000   5     2     1                   
  280 L  OJACARA-BA230  10036.26                                           11000   5     2     1                   
  281 L  OD.PITU-BA230   9966.05                                           11000   5     2     1                   
  283 L  OIRECE--BA230  100126.5                                           61000   5     2     1                   
  284 L  OCAMAC4-BA230  10177.36                                           11000   5     2     1                   
  285 L  OBJLAPA-BA230   99323.1                                           61000   5     2     1                   
  286 L  OBARREI-BA230  101019.4                                           61000   5     2     1                   
  287 L  OE.MART-PI230  101829.9                                           41000  17     2     1                   
  288 L  OIBICOA-BA230  100712.7                                           61078   5     2     1                   
  289 L  OSAPEAC-BA230  102010.6                                           11000   5     2     1                   
  290 L  OPARAIS-RN230  101126.6                                           21000  20     2     1                   
  291 L  OUTINGA-PA230  100810.6                                           71034  14     1     1                   
  292 L  OST.MAR-PA230   999 7.6                                           71043  14     1     1                   
  293 L  OMIRAMA-PA230  10029.74                                           71039  14     1     1                   
  295 L  OPICOS--PI230  1002 30.                                           41000  17     2     1                   
  296 L  OZEBU3--AL230  100222.4                                           31000   2     2     1                   
  297 L  OTUCURU-PA230  101829.8                                           71040  14     1     1                   
  298 L  OV.COND-PA230  100712.3                                           71050  14     1     1                   
  299 L  OMARABA-PA230  100721.7                                           71000  14     1     1                   
  300 L  OPAF3-B-BA230  101625.6                                           51000   5     2     1                   
  301 L  OASALEA-AL230  102627.3                                           51000   2     2     1                   
...
99999
DLIN
(De )d O d(Pa )NcEPM( R% )( X% )(Mvar)(Tap)(Tmn)(Tmx)(Phs)(Bc  )(Cn)(Ce)Ns(Cq)(1)(2)(3)(4)(5)(6)(7)(8)(9)(10 (U) Uop
   33        35 1          2.055         1.                     99999999  9999 16 16                           1   1
   34        35 1          2.055         1.                     99999999  9999 16 16                           1   1
  104     12104 1         4.8075         1.                     230.230.  250. 16 16                           1   1
  108       381 1            7.5         1.                     200.200.  200.  5  5                           1   1
  109       381 1           5.78         1.                     200.200.  200.  5  5                           1   1
  110       284 1    .37042.18254.0731                          279.349.  283.  5  5
  111       110 1          23.64         1.                      42. 42.   42.  5  5                           1   1
  112       110 1         12.239         1.                      42. 42.   42.  5  5                           1   1
  115       415 1           -.49         1.                     100.103.  103. 10 10                           1   1
  115       815 1           -.49         1.                     100.103.  103. 10 10                           1   1
  115       816 1           -.49         1.                     100.120.  120. 10 10                           1   1
  115      9800 1 T  1.018 2.181 .5789                          112.127.  112. 10 27
  115      9800 2 T  1.018 2.181 .5789                          112.127.  112. 10 27
  120       122 1    .29151.2692   .64                          228.306.  228. 16 16
  120     58098 1     5.59   15.  3.41                          132.132.  132. 16 16
  120     58098 2     5.59   15.  3.41                          132.132.  132. 16 16
  120     58301 1    7.44819.992  4.56                           87.113.   87. 16 16
  120     80702 1           .001                                99999999  9999 16 16
  128       280 1             8.         1.                     150.150.  150.  5  5                           1   1
  129       280 1             8.         1.                     150.150.  150.  5  5                           1   1
  130       138 1         8.0789         1.                     200.200.  200. 15 15                           1   1
  131       531 1           -.65         1.                     100.103.  100. 10 10                           1   1
  131       731 1           -.65         1.                     100.103.  100. 10 10                           1   1
  131       732 1           -.65         1.                     100.103.  100. 10 10                           1   1
  137       138 1           8.08         1.                     200.200.  200. 15 15                           1   1
  138       248 1      .01   .02   .06                          478.478.  478. 15 15
  139       649 1          20.12         1.                     99999999  9999 16 16                           1   1
  141       147 1          -3.63         1.                     99999999  9999 16 16                           1   1
  141       148 1          -3.63         1.                     99999999  9999 16 16                           1   1
  141       149 1          -3.63         1.                     99999999  9999 16 16                           1   1
  141       353 1     .092  .459 .8932                          99999999  9999 16 16
  141       353 2     .092  .459 .8932                          99999999  9999 16 16
  142       102 1           7.32         1.                     99999999  9999  6  6                           1   1
  142       625 1    1.328 4.662                                99999999  9999  6  6
  145       645 1          25.33      .9966   .9  1.1       -645 45. 45.32 45. 20 20                           1   1
  145       645 2            26.      .9966   .9  1.1       -645 50. 50.32 50. 20 20                           1   1
  145       694 1            26.      .9965   .9  1.1       -694 50. 50.32 50. 20 15                           1   1
  147        96 1          19.31         1.                     99999999  9999 16 16                           1   1
  147        97 1          23.24         1.                     99999999  9999 16 16                           1   1
  148        98 1          19.31         1.                     99999999  9999 16 16                           1   1
  148        99 1          23.24         1.                     99999999  9999 16 16                           1   1
  149       100 1          19.31         1.                     99999999  9999 16 16                           1   1
  149       101 1            7.8         1.                     99999999  9999 16 16                           1   1
  150       140 1          63.65         1.                      27. 27.   27.  5  5                           1   1
  150       140 2          63.65         1.                      27. 27.   27.  5  5                           1   1
  151       152 1 T   4.03 13.09   3.1                           68. 68.  118. 20 20
  151       152 2    4.17113.009 3.176                          101.101.  101. 20 20
  151     80800 1    7.84819.5415.1797                          999.999.  999. 20 20
  151     80800 2     7.96 19.82 5.253                          999.999.  999. 20 20
  152       852 1         131.16        .96                      33. 33.   15. 20 20                           1   1
  152       858 1         131.16        .96                      33. 33.   15. 20 20                           1   1
  162     18554 1     6.47 17.16 4.274                          100.136.  100.  5  5
  166       571 1    .11641.8643265.83                          25982728  2598 27 27
  169     18554 1     8.03 21.26  5.99                          100.136.  100.  5  5
  169     18600 1     4.27 12.22 2.938                           95.136.   95.  5  5
  169     18628 1       .4   .99  .262                          100.136.  100.  5  5
  169     18628 2      .63  1.59   .42                          100.136.  100.  5  5
  176        63 1          68.61         1.                      14. 17.   14.  5  5                           1   1
  176       976 1           8.78         1.                      50. 50.   50.  5  5                           1   1
  181       180 1            14.         1.                     99999999  9999  5  5                           1   1
  182       181 1     1.15  2.73  .063                           50. 68.   68.  5  5
  182       337 1     1.36  6.03  .105                           75.102.  102.  5  5
  182       337 2     1.36  6.03  .105                           75.102.  102.  5  5
  183     83126 1    1.542 7.699 1.641                          140.184.  140.  5  5
  186     18645 1     1.85  4.62  1.22                          100.135.  135.  5  5
  186     18797 2     5.06 12.65  3.34                          100.135.  135.  5  5
  190       193 1          15.21         1.                      90.108.  120. 14 14                           1   1
  190       194 1          15.21         1.                      90.108.  120. 14 14                           1   1
  190       195 1          15.21         1.                      90.108.  120. 14 14                           1   1
  191       591 1     .189 3.037 454.1                          25982598  2598 14 27
  192     19751 1 T 3.41578.82172.1519                          126.126.  123. 14 14
  196     11244 1            6.7         1.                     220.220.  220. 15 15                           1   1
  197       599 1           -.71                                19922680  1992 14 14
  198       698 1          -.458         1.                     200.240.   33. 14 14                           1   1
  200         6 1          19.91       1.04                      75. 90.   75.  5  5                           1   1
  200         8 1          15.78       1.04                      90.108.   90.  5  5                           1   1
  200         9 1          15.52       1.04                      90.108.   90.  5  5                           1   1
  200        10 1           5.55         1.                     240.288.  240.  5  5                           1   1
  200       208 1D      .1   .52   .98                          251.317.  317.  5  2
  200       270 1     2.45  13.1 22.68                          251.251.  251.  5  5
  200       349 1    3.68120.06634.322                          174.247.  247.  5 16
  200       500 1          1.414       .989   .9  1.1        200600.600.32600.  5  5                           1   1
  200     11201 1   2.135810.24118.859                          174.247.  247.  5  2
  200     11250 1   2.596813.338 25.24                          251.317.  251.  5 25
  200     12404 1           6.24      1.025                     99999999  9999  5  5                           1   1
  200     12405 1           5.33      1.025                     99999999  9999  5  5                           1   1
  200     12407 1           4.35      1.025                     99999999  9999  5  5                           1   1
  202       203 1      2.7  13.9 26.26                          251.317.  251.  5  5
  202       207 1    1.442  7.05 13.24                          251.317.  251.  5  5
  202       602 1          12.87       .987   .9  1.1       -602100.105.32100.  5  5                           1   1
  202       602 2      .54 12.66       .987   .9  1.1       -602100.105.32100.  5  5                           1   1
  202       602 3          12.43       .987   .9  1.1       -602100.100.32100.  5  5                           1   1
  202       602 4          12.91       .987   .9  1.1       -602100.100.32100.  5  5                           1   1
  202     11282 1      .07  .065  .254                          550.693.  550.  5  5
  202     81600 2    .0369 .2143 1.149                          300.355.  300.  5  5
  202     81603 1    .96478.1834 16.45                          250.315.  250.  5  5
  203       103 1            9.2      .9661 .7261.117       -103100.100.32100.  5  5                           1   1
  203       103 2           9.21      .9661 .7261.117       -103100.120.32100.  5  5                           1   1
  203       103 3           9.42      .9661 .7261.117       -103100.120.32100.  5  5                           1   1
  203       603 1    .2142 13.23      .9786   .9  1.1       -603100.120.32 33.  5  5                           1   1
  203       603 2          13.11      .9786   .9  1.1       -603100.120.32 33.  5  5                           1   1
  203     81614 1     .206 2.161 8.295                          615.792.  615.  5  5
  205       283 1      2.4 13.05 23.32                          251.317.  251.  5  5
  205     11260 1    2.58312.40522.894                          251.317.  251.  5  5
  205     56892 1    .88114.605622.785                          99999999  9999  5  5
  205     81625 1    3.651 21.57       1.06                     99999999  9999  5  5                           1   1
  206       202 1      .78    4.   7.5                          251.317.  251.  5  5
  206       202 2      .78    4.   7.5                          251.317.  251.  5  5
  206       506 1           3.56       .961   .9  1.1        206300.300.32300.  5  5                           1   1
  206       506 2           3.56       .961   .9  1.1        206300.300.32300.  5  5                           1   1
  206     81587 3     1.24 6.341 11.72                          240.240.  240.  5  5
  206     81590 1     1.04  5.38 10.23                          300.358.  300.  5  5
  207       203 1      1.3  6.67 12.52                          251.317.  251.  5  5
  207     21036 1      .02  .095  .174                          251.317.  251.  5  5
  207     21036 2      .02  .095  .174                          251.317.  251.  5  5
  208       708 1          12.81      .9878  .85  1.1       -708100.100.20569.  2  2                           1   1
  208       708 2          12.81      .9878  .85  1.1       -708100.100.20569.  2  2                           1   1
  208       708 3           12.8      .9878   .9  1.1       -708100.120.32100.  2  2                           1   1
  208       708 4           12.8      .9878   .9  1.1       -708100.120.32100.  2  2                           1   1
  208     56845 1   .14075.54968 2.188                          398.398.  398.  2  2
  209       376 1     2.68  13.6 24.87                          250.315.  250.  5  5
  209       909 1           11.8      1.001   .9  1.1       -909100.100.32100.  5  5                           1   1
  209       909 2           11.8      1.001   .9  1.1       -909100.100.32100.  5  5                           1   1
  210       215 1    1.516  8.7217.103                          203.251.  251. 17 10
  210       215 2    1.516  8.7217.103                          203.251.  251. 17 10
  210       657 1          24.26      .9684   .9  1.1       -657 50. 60.32 60. 17 17                           1   1
  210       969 1     .746 3.784 6.982                          200.200.  200. 17 17
  210     80733 1    .0618  .381  .725                          99999999  9999 17 17
  211        86 1          28.13         1.                     160.192.  160. 17 17                           1   1
  211        87 1          32.14         1.                     160.192.  160. 17 17                           1   1
  211       228 1    1.867  9.63 16.83                          273.273.  273. 17 17
  212       296 1    .71665.3346 26.37                          578.777.  641. 16  2
  212     11281 1      .582.7891 12.39                          400.400.  400. 16 16
  212     11281 2    .61442.7542 13.21                          400.400.  400. 16 16
  212     21034 1      .02  .095  .174                          251.317.  251. 16 16
  212     21034 2      .02  .095  .174                          251.317.  251. 16 16
  213       209 1     1.65  8.35 15.27                          250.250.  250.  5  5
  213     21045 1      .02  .095  .174                          251.317.  251.  5  5
  215       607 1          12.07      .9769   .9  1.1       -607100.120.32120. 10 10                           1   1
  215       607 2          12.07      .9769   .9  1.1       -607100.120.32120. 10 10                           1   1
  216       616 1     .548 12.63      .9845  .851.117       -616100.100.32100.  6  6                           1   1
  216       616 2     .274 12.63      .9845  .851.117       -616100.100.32100.  6  6                           1   1
  216     11217 1   4.113519.91837.174                          291.291.  291.  6  6
  217       222 1     2.02  8.63 30.04                          323.478.  380.  6  6
  217       222 2     2.038.354431.148                          323.323.  323.  6  6
  217       617 1          12.87      .9782   .9  1.1       -617100.100.32100.  6  6                           1   1
  217       617 2            13.      .9782   .9  1.1       -617100.100.32100.  6  6                           1   1
  217       617 3     .221  12.4      .9782   .9  1.1       -617100.100.32100.  6  6                           1   1
  218       618 1      .37 13.33       .956   .9  1.1       -618100.100.32100.  6  6                           1   1
  218       618 2      .54 12.72       .956   .9  1.1       -618100.100.32100.  6  6                           1   1
  218       618 3          12.72       .956   .9  1.1       -618100.100.32100.  6  6                           1   1
  218     11218 1       .3 2.153 7.981                          476.600.  476.  6  6
  218     80905 1    .24811.2117  .154                          99999999  9999  6  6
  219       619 1          12.47      .9976   .9  1.1       -619100.106.32100.  6  6                           1   1
  219       619 2          12.47      .9976   .9  1.1       -619100.106.32100.  6  6                           1   1
  219       619 3          12.47      .9976   .9  1.1       -619100.106.32100.  6  6                           1   1
  219       619 4          12.47      .9976   .9  1.1       -619100.106.32100.  6  6                           1   1
  220       120 1           9.14      1.007   .91.118       -120100.100.32100. 16 16                           1   1
  220       120 2          10.22      1.007   .91.118       -120100.100.32100. 16 16                           1   1
  220       120 3           9.03      1.007   .91.118       -120100.100.32100. 16 16                           1   1
  220       120 4             9.      1.007   .9  1.1       -120100.120.32100. 16 16                           1   1
  220       212 1D   1.222 4.86228.122                          400.400.  400. 16 16
  220       212 2D  1.25634.9981 28.91                          400.400.  400. 16 16
  220       620 1            14.      .9915   .9  1.1       -620100.120.32 33. 16 16                           1   1
  220       620 2            14.      .9915   .9  1.1       -620100.120.32 33. 16 16                           1   1
  220     21035 1      .02  .095  .174                          251.317.  251. 16 16
  220     80692 1    .17731.8062 6.841                          515.670.  515. 16 16
  220     80699 1    .0767 .3954 1.959                          99999999  9999 16 16
  221       217 1     1.72  7.31 25.34                          323.478.  323.  6  6
  221       217 2     1.58  6.57 24.84                          323.478.  323.  6  6
  221       222 1   1.706314.49657.495                          576.777.  174.  6  6
  221       521 1           1.27      .9632 .7741.169        221600.600.32600.  6  6                           1   1
  221       521 2           1.27      .9632 .7741.169        221600.600.32600.  6  6                           1   1
  221       521 3           1.27      .9632 .7741.169        221600.600.32600.  6  6                           1   1
  221       621 1            13.      .9642   .9  1.1       -621100.100.32100.  6  6                           1   1
  221       621 2          13.27      .9642   .9  1.1       -621100.102.32100.  6  6                           1   1
  221       621 3          13.23      .9642   .9  1.1       -621100.102.32100.  6  6                           1   1
  221       621 4            13.      .9642 .7261.118       -621100.100.32100.  6  6                           1   1
  221     11571 1     1.49  7.67 13.76                          251.317.  317.  6 15
  221     11571 2     1.49  7.67 13.76                          251.317.  317.  6 15
  222       622 1     .389 13.27      .9765 .8631.117       -622100.100.32103.  6  6                           1   1
  222       622 2      .34 13.27      .9765 .8631.117       -622100.100.32103.  6  6                           1   1
  222       622 3      .56   26.      .9765   .9  1.1       -622 50. 50.32136.  6  6                           1   1
  222       622 4            14.      .9765   .9  1.1       -622100.130.32130.  6  6                           1   1
  222     11219 1    2.853   12. 44.02                          307.392.  308.  6  6
  222     11219 2    2.853   12. 44.02                          307.392.  308.  6  6
  222     11219 3    2.853   12. 44.02                          307.307.  307.  6  6
  222     11220 1    .68553.526212.547                          506.601.  506.  6  6
  222     11220 2    .72433.725813.259                          506.601.  506.  6  6
  222     21037 1      .02  .095  .174                          251.317.  251.  6  6
  223       623 1          12.42       .979   .9  1.1       -623100.105.32100.  6  6                           1   1
  223       623 2      .28 13.02       .979   .9  1.1       -623100.105.32100.  6  6                           1   1
  223       623 3     .271   13.       .979   .9  1.1       -623100.105.32100.  6  6                           1   1
  223     11014 1     .552 2.944  5.08                          251.317.  251.  6  6
  223     11220 1     .7954.0904 14.56                          506.601.  506.  6  6
  223     11220 2    .75143.865613.757                          506.601.  506.  6  6
  223     80740 2   1.23366.0749 11.66                          400.400.  400.  6  6
  223     80743 1   1.3409 6.166  12.3                          140.199.  140.  6  6
  223     80745 1     .694 5.274  9.05                          200.200.  221.  6  6
  224       624 1          12.97       .994   .9  1.1       -624100.103.32100. 20 20                           1   1
...
99999
DCSC
(De ) O  (Pa )NcEPB      (Xmin)(Xmax)( Xv )C ( Vsp) (Ext)Nst(Cn)(Ce)(Cq)(1)(2)(3)(4)(5)(6)(7)(8)(9)(10
  736      539 1          -1.76  -.59 -.637X  -.637   736   999999999999
 4267    38040 1                     1.5753X 1.5753  4267   360.454.454.
 4267    38041 1                     1.5753X 1.5753  4267   360.454.454.
99999
DBSH
(NFr) O (NTo) Nc C (Vmn (Vmx Bctrl (Qini) T A (Extr
  121            D 0950 1050   121   -10. C         
(G  O E (U) UOp (Sht ) M
 1        2   2    -5. S
 2        1   0   -10. S
FBAN
(NFr) O (NTo) Nc C (Vmn (Vmx Bctrl (Qini) T A (Extr
  125            D 0950 1050   125    3.1 C         
(G  O E (U) UOp (Sht ) M
 1        3   1    3.1 S
 2        1   0    -5. S
FBAN
(NFr) O (NTo) Nc C (Vmn (Vmx Bctrl (Qini) T A (Extr
  145            D 0950 1050   145   -10. C         
(G  O E (U) UOp (Sht ) M
 1        1   1   -10. S
FBAN
(NFr) O (NTo) Nc C (Vmn (Vmx Bctrl (Qini) T A (Extr
  162            D 0950 1050   162    10. C         
(G  O E (U) UOp (Sht ) M
 1        1   1    10. S
FBAN
(NFr) O (NTo) Nc C (Vmn (Vmx Bctrl (Qini) T A (Extr
  192            D 0950 1050   192   22.8 C         
(G  O E (U) UOp (Sht ) M
 1        4   4     3. S
 3        8   6    1.8 S
 4        5   0    3.6 S
FBAN
(NFr) O (NTo) Nc C (Vmn (Vmx Bctrl (Qini) T A (Extr
  213            D 0950 1050   213   -10. C         
(G  O E (U) UOp (Sht ) M
 1        1   1   -10. S
 2        1   0   -15. S
FBAN
(NFr) O (NTo) Nc C (Vmn (Vmx Bctrl (Qini) T A (Extr
  216            D 0950 1050   216   -15. C         
(G  O E (U) UOp (Sht ) M
 1        1   1   -15. S
FBAN
(NFr) O (NTo) Nc C (Vmn (Vmx Bctrl (Qini) T A (Extr
  219            D 0950 1050   219   50.5 C         
(G  O E (U) UOp (Sht ) M
 1        1   1   50.5 S
FBAN
(NFr) O (NTo) Nc C (Vmn (Vmx Bctrl (Qini) T A (Extr
  221            D 0950 1050   221   50.5 C         
(G  O E (U) UOp (Sht ) M
 1        1   0   -20. S
 2        2   1   50.5 S
FBAN
(NFr) O (NTo) Nc C (Vmn (Vmx Bctrl (Qini) T A (Extr
  222            D 0950 1050   222        C         
(G  O E (U) UOp (Sht ) M
 1        2   0   -20. S
 2        2   0   50.5 S
 3        1   0   -20. S
FBAN
(NFr) O (NTo) Nc C (Vmn (Vmx Bctrl (Qini) T A (Extr
  223            D 0950 1050   223   -20. C         
(G  O E (U) UOp (Sht ) M
 2        1   1   -20. S
FBAN
(NFr) O (NTo) Nc C (Vmn (Vmx Bctrl (Qini) T A (Extr
  225            D 0950 1050   225        C         
(G  O E (U) UOp (Sht ) M
 1        1   0   50.5 S
 2        1   0   -10. S
FBAN
(NFr) O (NTo) Nc C (Vmn (Vmx Bctrl (Qini) T A (Extr
  227            D 0950 1050   227    30. C         
(G  O E (U) UOp (Sht ) M
 1        3   1    30. S
FBAN
(NFr) O (NTo) Nc C (Vmn (Vmx Bctrl (Qini) T A (Extr
  228            D 0950 1050   228   50.5 C         
(G  O E (U) UOp (Sht ) M
 1        1   1   50.5 S
 2        1   0   50.5 S
FBAN
(NFr) O (NTo) Nc C (Vmn (Vmx Bctrl (Qini) T A (Extr
  329     228  1 D 0950 1050   228        C     228 
(G  O E (U) UOp (Sht ) M
 1        1   0   -10. S
FBAN
(NFr) O (NTo) Nc C (Vmn (Vmx Bctrl (Qini) T A (Extr
  211     228  1 D 0950 1050   228        C     228 
(G  O E (U) UOp (Sht ) M
 1        1   0   -10. S
FBAN
(NFr) O (NTo) Nc C (Vmn (Vmx Bctrl (Qini) T A (Extr
  230            D 0950 1050   230    20. C         
(G  O E (U) UOp (Sht ) M
 1        2   1    20. S
FBAN
(NFr) O (NTo) Nc C (Vmn (Vmx Bctrl (Qini) T A (Extr
  231            D 0950 1050   231        C         
(G  O E (U) UOp (Sht ) M
 1        2   0   -10. S
 2        2   0    20. S
FBAN
(NFr) O (NTo) Nc C (Vmn (Vmx Bctrl (Qini) T A (Extr
  236            D 0950 1050   236   -15. C         
(G  O E (U) UOp (Sht ) M
 1        1   1   -15. S
FBAN
(NFr) O (NTo) Nc C (Vmn (Vmx Bctrl (Qini) T A (Extr
19099     236  1 D 0950 1050   236        C     236 
(G  O E (U) UOp (Sht ) M
 1        1   0   -20. S
FBAN
(NFr) O (NTo) Nc C (Vmn (Vmx Bctrl (Qini) T A (Extr
  241            D 0950 1050   241   50.5 C         
(G  O E (U) UOp (Sht ) M
 1        2   1   50.5 S
FBAN
(NFr) O (NTo) Nc C (Vmn (Vmx Bctrl (Qini) T A (Extr
  246            D 0950 1050   246   -30. C         
(G  O E (U) UOp (Sht ) M
 1        1   1   -30. S
FBAN
(NFr) O (NTo) Nc C (Vmn (Vmx Bctrl (Qini) T A (Extr
  290     246  1 D 0950 1050   246        C     246 
(G  O E (U) UOp (Sht ) M
 1        1   0   -10. S
FBAN
(NFr) O (NTo) Nc C (Vmn (Vmx Bctrl (Qini) T A (Extr
  246     346  1 D 0950 1050   246        C     246 
(G  O E (U) UOp (Sht ) M
 1        1   0   -9.9 S
FBAN
(NFr) O (NTo) Nc C (Vmn (Vmx Bctrl (Qini) T A (Extr
  247            D 0950 1050   247   -10. C         
(G  O E (U) UOp (Sht ) M
 1        1   1   -10. S
FBAN
(NFr) O (NTo) Nc C (Vmn (Vmx Bctrl (Qini) T A (Extr
  258            D 0950 1050   258    15. C         
(G  O E (U) UOp (Sht ) M
 1        3   1    15. S
FBAN
(NFr) O (NTo) Nc C (Vmn (Vmx Bctrl (Qini) T A (Extr
  261            D 0950 1050   261        C         
(G  O E (U) UOp (Sht ) M
 1        1   0    63. S
FBAN
(NFr) O (NTo) Nc C (Vmn (Vmx Bctrl (Qini) T A (Extr
  265            D 0950 1050   265    50. C         
(G  O E (U) UOp (Sht ) M
 1        1   1    50. S
FBAN
(NFr) O (NTo) Nc C (Vmn (Vmx Bctrl (Qini) T A (Extr
  269            D 0950 1050   269        C         
(G  O E (U) UOp (Sht ) M
 1        1   0  -22.2 S
 2        1   0    20. S
FBAN
(NFr) O (NTo) Nc C (Vmn (Vmx Bctrl (Qini) T A (Extr
  274            D 1000 1100   274   100. C         
(G  O E (U) UOp (Sht ) M
 1        1   1   100. S
FBAN
(NFr) O (NTo) Nc C (Vmn (Vmx Bctrl (Qini) T A (Extr
  276            D 0950 1050   276   50.5 C         
(G  O E (U) UOp (Sht ) M
 1        2   1   50.5 S
 2        1   0   -20. S
 3        1   0  -22.2 S
FBAN
(NFr) O (NTo) Nc C (Vmn (Vmx Bctrl (Qini) T A (Extr
  283            D 0950 1050   283        C         
(G  O E (U) UOp (Sht ) M
 1        1   0   100. S
FBAN
(NFr) O (NTo) Nc C (Vmn (Vmx Bctrl (Qini) T A (Extr
  285            D 0950 1050   285   -10. C         
(G  O E (U) UOp (Sht ) M
 1        1   1   -10. S
FBAN
(NFr) O (NTo) Nc C (Vmn (Vmx Bctrl (Qini) T A (Extr
  285     205  1 D 0950 1050   285   -15. C     285 
(G  O E (U) UOp (Sht ) M
 1        2   1   -15. S
FBAN
(NFr) O (NTo) Nc C (Vmn (Vmx Bctrl (Qini) T A (Extr
  286            D 0950 1050   286   -10. C         
(G  O E (U) UOp (Sht ) M
 1        1   1   -10. S
FBAN
(NFr) O (NTo) Nc C (Vmn (Vmx Bctrl (Qini) T A (Extr
  291            D 0950 1050   291  166.5 C         
(G  O E (U) UOp (Sht ) M
 1        4   3   55.5 S
FBAN
(NFr) O (NTo) Nc C (Vmn (Vmx Bctrl (Qini) T A (Extr
  292            D 0950 1050   292    55. C         
(G  O E (U) UOp (Sht ) M
 1        2   1    55. S
FBAN
(NFr) O (NTo) Nc C (Vmn (Vmx Bctrl (Qini) T A (Extr
  295            D 0950 1050   295    15. C         
(G  O E (U) UOp (Sht ) M
 1        1   0   -15. S
 2        5   1    15. S
FBAN
(NFr) O (NTo) Nc C (Vmn (Vmx Bctrl (Qini) T A (Extr
  298            D 0950 1050   298   333. C         
(G  O E (U) UOp (Sht ) M
 1        4   3   111. S
FBAN
(NFr) O (NTo) Nc C (Vmn (Vmx Bctrl (Qini) T A (Extr
  299            D 0950 1050   299        C         
(G  O E (U) UOp (Sht ) M
 1        1   0    20. S
FBAN
(NFr) O (NTo) Nc C (Vmn (Vmx Bctrl (Qini) T A (Extr
  332            D 0950 1050   332  111.9 C         
(G  O E (U) UOp (Sht ) M
 1        1   1   50.8 S
 2        1   1   61.1 S
 3        1   0   111. S
FBAN
(NFr) O (NTo) Nc C (Vmn (Vmx Bctrl (Qini) T A (Extr
  345            D 0950 1050   345    20. C         
(G  O E (U) UOp (Sht ) M
 1        2   1    20. S
FBAN
(NFr) O (NTo) Nc C (Vmn (Vmx Bctrl (Qini) T A (Extr
  355            D 0950 1050   355   -20. C         
(G  O E (U) UOp (Sht ) M
 1        1   1   -20. S
FBAN
(NFr) O (NTo) Nc C (Vmn (Vmx Bctrl (Qini) T A (Extr
  360            D 0950 1050   360   50.5 C         
(G  O E (U) UOp (Sht ) M
 1        1   1   50.5 S
 2        1   0   50.5 S
FBAN
(NFr) O (NTo) Nc C (Vmn (Vmx Bctrl (Qini) T A (Extr
  362            D 0950 1050   362   -30. C         
(G  O E (U) UOp (Sht ) M
 1        1   1   -30. S
FBAN
(NFr) O (NTo) Nc C (Vmn (Vmx Bctrl (Qini) T A (Extr
  363            D 0950 1050   363        C         
(G  O E (U) UOp (Sht ) M
 1        1   0    30. S
FBAN
(NFr) O (NTo) Nc C (Vmn (Vmx Bctrl (Qini) T A (Extr
  361     363  1 D 0950 1050   363        C     363 
(G  O E (U) UOp (Sht ) M
 1        1   0   -30. S
FBAN
(NFr) O (NTo) Nc C (Vmn (Vmx Bctrl (Qini) T A (Extr
  365            D 0950 1050   365   -20. C         
(G  O E (U) UOp (Sht ) M
 1        1   1   -20. S
FBAN
(NFr) O (NTo) Nc C (Vmn (Vmx Bctrl (Qini) T A (Extr
  366            D 0950 1050   366        C         
(G  O E (U) UOp (Sht ) M
 1        1   0   -25. S
FBAN
(NFr) O (NTo) Nc C (Vmn (Vmx Bctrl (Qini) T A (Extr
  367            D 0950 1050   367        C         
(G  O E (U) UOp (Sht ) M
 1        1   0   -25. S
FBAN
(NFr) O (NTo) Nc C (Vmn (Vmx Bctrl (Qini) T A (Extr
  376            D 0950 1050   376   -10. C         
(G  O E (U) UOp (Sht ) M
 1        1   1   -10. S
FBAN
(NFr) O (NTo) Nc C (Vmn (Vmx Bctrl (Qini) T A (Extr
  209     376  1 D 0950 1050   376        C     376 
(G  O E (U) UOp (Sht ) M
10        1   0   -15. S
FBAN
(NFr) O (NTo) Nc C (Vmn (Vmx Bctrl (Qini) T A (Extr
  381            D 0950 1050   381    50. C         
(G  O E (U) UOp (Sht ) M
 1        1   1    50. S
FBAN
(NFr) O (NTo) Nc C (Vmn (Vmx Bctrl (Qini) T A (Extr
  390            D 0950 1050   390    55. C         
(G  O E (U) UOp (Sht ) M
 1        2   1    55. S
FBAN
(NFr) O (NTo) Nc C (Vmn (Vmx Bctrl (Qini) T A (Extr
  394            D 0950 1050   394        C         
(G  O E (U) UOp (Sht ) M
 1        1   0   50.5 S
FBAN
(NFr) O (NTo) Nc C (Vmn (Vmx Bctrl (Qini) T A (Extr
  439     438  1 D 1000 1100   438        C     438 
(G  O E (U) UOp (Sht ) M
 1        1   0  -150. S
FBAN
(NFr) O (NTo) Nc C (Vmn (Vmx Bctrl (Qini) T A (Extr
  459     838  1 D 1000 1100   459  -180. C     459 
(G  O E (U) UOp (Sht ) M
 1        1   1  -180. S
FBAN
(NFr) O (NTo) Nc C (Vmn (Vmx Bctrl (Qini) T A (Extr
  506   58691  1 D 1000 1100   506  -150. C     506 
(G  O E (U) UOp (Sht ) M
 1        1   1  -150. S
FBAN
(NFr) O (NTo) Nc C (Vmn (Vmx Bctrl (Qini) T A (Extr
  516            D 1000 1100   516  -180. C         
(G  O E (U) UOp (Sht ) M
 1        1   1  -180. S
FBAN
(NFr) O (NTo) Nc C (Vmn (Vmx Bctrl (Qini) T A (Extr
  521            D 1000 1100   521  -280. C         
(G  O E (U) UOp (Sht ) M
 1        1   1  -100. S
 2        1   1  -180. S
FBAN
(NFr) O (NTo) Nc C (Vmn (Vmx Bctrl (Qini) T A (Extr
  523            D 1000 1100   523  -450. C         
(G  O E (U) UOp (Sht ) M
 1        1   1  -150. S
 2        3   2  -150. S
FBAN
(NFr) O (NTo) Nc C (Vmn (Vmx Bctrl (Qini) T A (Extr
  525            D 1000 1100   525        C         
(G  O E (U) UOp (Sht ) M
 1        1   0  -150. S
FBAN
(NFr) O (NTo) Nc C (Vmn (Vmx Bctrl (Qini) T A (Extr
  526            D 1000 1100   526  -150. C         
...